tests/data/ieee14.raw
     0,   100.00            / PSS/E-33  WARNING: NOT FOR PRODUCTION USE
IEEE 14 Bus Test Case
EquivDEMO
     1,'Bus 1    ',  69.0000,3,   1,    1,    1,1.06000,   0.0000,    0.000,    0.000,1.06000,0.94000
     2,'Bus 2    ',  69.0000,2,   1,    1,    1,1.04500,  -4.9826,   21.700,   12.700,1.04500,0.94000
     3,'Bus 3    ',  69.0000,2,   1,    1,    1,1.01000, -12.7250,   94.200,   19.000,1.01000,0.94000
     4,'Bus 4    ',  69.0000,1,   1,    1,    1,1.01767, -10.3129,   47.800,   -3.900,1.05000,0.94000
     5,'Bus 5    ',  69.0000,1,   1,    1,    1,1.01951,  -8.7739,    7.600,    1.600,1.05000,0.94000
     6,'Bus 6    ',  13.8000,2,   1,    1,    1,1.07000, -14.2209,   11.200,    7.500,1.07000,0.94000
     7,'Bus 7    ',  13.8000,1,   1,    1,    1,1.06152, -13.3596,    0.000,    0.000,1.09000,0.94000
     8,'Bus 8    ',  18.0000,2,   1,    1,    1,1.09000, -13.3596,    0.000,    0.000,1.09000,0.94000
     9,'Bus 9    ',  13.8000,1,   1,    1,    1,1.05633, -14.9385,   29.500,   16.600,1.10000,0.94000
    10,'Bus 10   ',  13.8000,1,   1,    1,    1,1.05133, -15.0973,    9.000,    5.800,1.10000,0.94000
    11,'Bus 11   ',  13.8000,1,   1,    1,    1,1.05707, -14.7906,    3.500,    1.800,1.10000,0.94000
    12,'Bus 12   ',  13.8000,1,   1,    1,    1,1.05519, -15.0756,    6.100,    1.600,1.10000,0.94000
    13,'Bus 13   ',  13.8000,1,   1,    1,    1,1.05043, -15.1563,   13.500,    5.800,1.10000,0.94000
    14,'Bus 14   ',  13.8000,1,   1,    1,    1,1.03577, -16.0336,   14.900,    5.000,1.10000,0.94000
0 / END OF BUS DATA, BEGIN LOAD DATA
0 / END OF LOAD DATA, BEGIN GENERATOR DATA
     1,1,  232.386,  -16.548,    9999,  -9999,1.06000,     0,   100.000,0.00000, 0.00000,0.00000,1.00000,1,100.0,  350.000,    0.000,1,1.0000
     2,1,   40.000,   42.400,    9999,  -9999,1.04500,     0,   100.000,0.00000, 0.00000,0.00000,1.00000,1,100.0,  100.000,    0.000,1,1.0000
     3,1,    0.000,   23.394,    9999,  -9999,1.01000,     0,   100.000,0.00000, 0.00000,0.00000,1.00000,1,100.0,  100.000,    0.000,1,1.0000
     6,1,    0.000,   12.245,    9999,  -9999,1.07000,     0,   100.000,0.00000, 0.00000,0.00000,1.00000,1,100.0,  100.000,    0.000,1,1.0000
     8,1,    0.000,   17.362,    9999,  -9999,1.09000,     0,   100.000,0.00000, 0.00000,0.00000,1.00000,1,100.0,  100.000,    0.000,1,1.0000
0 / END OF GENERATOR DATA, BEGIN BRANCH DATA
     1,     2,'1 ',  0.01938,  0.05917,   0.05280,   9900.0,   9900.0,   9900.0,  0.00000,  0.00000,  0.00000,  0.00000,1,1.0000
     1,     5,'1 ',  0.05403,  0.22304,   0.04920,   9900.0,   9900.0,   9900.0,  0.00000,  0.00000,  0.00000,  0.00000,1,1.0000
     2,     3,'1 ',  0.04699,  0.19797,   0.04380,   9900.0,   9900.0,   9900.0,  0.00000,  0.00000,  0.00000,  0.00000,1,1.0000
     2,     4,'1 ',  0.05811,  0.17632,   0.03400,   9900.0,   9900.0,   9900.0,  0.00000,  0.00000,  0.00000,  0.00000,1,1.0000
     2,     5,'1 ',  0.05695,  0.17388,   0.03460,   9900.0,   9900.0,   9900.0,  0.00000,  0.00000,  0.00000,  0.00000,1,1.0000
     3,     4,'1 ',  0.06701,  0.17103,   0.01280,   9900.0,   9900.0,   9900.0,  0.00000,  0.00000,  0.00000,  0.00000,1,1.0000
     4,     5,'1 ',  0.01335,  0.04211,   0.00000,   9900.0,   9900.0,   9900.0,  0.00000,  0.00000,  0.00000,  0.00000,1,1.0000
     4,     7,'1 ',  0.00000,  0.20912,   0.00000,   9900.0,   9900.0,   9900.0,  0.00000,  0.00000,  0.97800,  0.00000,1,1.0000
     4,     9,'1 ',  0.00000,  0.55618,   0.00000,   9900.0,   9900.0,   9900.0,  0.00000,  0.00000,  0.96900,  0.00000,1,1.0000
     5,     6,'1 ',  0.00000,  0.25202,   0.00000,   9900.0,   9900.0,   9900.0,  0.00000,  0.00000,  0.93200,  0.00000,1,1.0000
     6,    11,'1 ',  0.09498,  0.19890,   0.00000,   9900.0,   9900.0,   9900.0,  0.00000,  0.00000,  0.00000,  0.00000,1,1.0000
     6,    12,'1 ',  0.12291,  0.25581,   0.00000,   9900.0,   9900.0,   9900.0,  0.00000,  0.00000,  0.00000,  0.00000,1,1.0000
     6,    13,'1 ',  0.06615,  0.13027,   0.00000,   9900.0,   9900.0,   9900.0,  0.00000,  0.00000,  0.00000,  0.00000,1,1.0000
     7,     8,'1 ',  0.00000,  0.17615,   0.00000,   9900.0,   9900.0,   9900.0,  0.00000,  0.00000,  0.00000,  0.00000,1,1.0000
     7,     9,'1 ',  0.00000,  0.11001,   0.00000,   9900.0,   9900.0,   9900.0,  0.00000,  0.00000,  0.00000,  0.00000,1,1.0000
     9,    10,'1 ',  0.03181,  0.08450,   0.00000,   9900.0,   9900.0,   9900.0,  0.00000,  0.00000,  0.00000,  0.00000,1,1.0000
     9,    14,'1 ',  0.12711,  0.27038,   0.00000,   9900.0,   9900.0,   9900.0,  0.00000,  0.00000,  0.00000,  0.00000,1,1.0000
    10,    11,'1 ',  0.08205,  0.19207,   0.00000,   9900.0,   9900.0,   9900.0,  0.00000,  0.00000,  0.00000,  0.00000,1,1.0000
    12,    13,'1 ',  0.22092,  0.19988,   0.00000,   9900.0,   9900.0,   9900.0,  0.00000,  0.00000,  0.00000,  0.00000,1,1.0000
    13,    14,'1 ',  0.17093,  0.34802,   0.00000,   9900.0,   9900.0,   9900.0,  0.00000,  0.00000,  0.00000,  0.00000,1,1.0000
0 / END OF BRANCH DATA
